/*--------------------------------*- C++ -*----------------------------------*\\
  =========                 |
  \\      /  F ield         | OpenFOAM: The Open Source CFD Toolbox
   \\    /   O peration     | Version: 13
    \\  /    A nd          |
     \\/     M anipulation  |
\\*---------------------------------------------------------------------------*/
FoamFile
{
    format      ascii;
    class       dictionary;
    object      transportProperties;
}

transportModel  Newtonian;

nu              [0 2 -1 0 0 0 0] 0.000015;
